6
	Energy:       0.6657691
C         -8.33662        2.84099        0.00930
O         -6.92214        2.79523       -0.02870
H         -8.69372        3.64327       -0.64105
H         -8.66903        3.01426        1.03575
H         -8.73267        1.88574       -0.34321
H         -6.59974        3.65568        0.28933
